<?xml version="1.0" encoding="UTF-8"?>

<!-- generated on 07/31/17 17:06:19 by SUMO polyconvert Version 0.30.0
<?xml version="1.0" encoding="UTF-8"?>

<configuration xmlns:xsi="http://www.w3.org/2001/XMLSchema-instance" xsi:noNamespaceSchemaLocation="http://sumo.dlr.de/xsd/polyconvertConfiguration.xsd">

    <input>
        <net-file value="C:\Users\Bruno\Sumo\2017-07-31-17-06-14\osm.net.xml"/>
        <osm-files value="osm_bbox.osm.xml"/>
        <osm.keep-full-type value="true"/>
        <type-file value="C:\Program%20Files%20(x86)\DLR\Sumo\data\typemap\osmPolyconvert.typ.xml"/>
    </input>

    <output>
        <output-file value="C:\Users\Bruno\Sumo\2017-07-31-17-06-14\osm.poly.xml"/>
    </output>

    <processing>
        <poi-layer-offset value="5"/>
    </processing>

    <report>
        <verbose value="true"/>
    </report>

</configuration>
-->

<additional xmlns:xsi="http://www.w3.org/2001/XMLSchema-instance" xsi:noNamespaceSchemaLocation="http://sumo.dlr.de/xsd/additional_file.xsd">
    <location netOffset="-590626.81,-4134487.52" convBoundary="-9491.68,-16.46,23512.86,16991.04" origBoundary="-122.082944,37.351133,-121.710443,37.503617" projParameter="+proj=utm +zone=10 +ellps=WGS84 +datum=WGS84 +units=m +no_defs"/>

    <poly id="157809656" type="man_made.pipeline" color="255,230,230" fill="0" layer="-1.00" shape="20018.35,16991.04 19956.01,16923.53 19955.30,16892.84 19926.25,16544.88 19965.14,16223.28 20054.37,15577.41 20112.73,15147.88 20167.23,14759.86 20318.76,13641.79 20406.93,13148.78 20494.16,12940.64 20991.89,11666.78 20999.91,11457.55 20780.15,10608.21 20887.97,10353.95 21011.74,10113.63 21240.80,9633.66 22017.97,8007.11 22447.40,7113.67 22831.08,6308.46 23512.86,5449.72 23197.94,3327.77 22595.68,3040.97 20826.49,2194.53 19083.92,1355.85 18672.65,1159.32 18399.38,1040.28 17370.02,658.59 16831.69,364.68 16054.74,366.08 14550.01,12.01 13256.86,-16.46 11451.49,458.15 11390.67,224.61 10921.84,53.30 10573.34,108.21 9210.29,405.06 9006.40,369.51 8568.54,447.55 8304.52,494.61 7680.81,358.08 7182.56,463.43 6992.94,457.37 6528.89,442.54 6318.76,435.84 6317.96,435.81 6040.23,426.96 5981.79,303.27 5292.68,230.98 5080.54,323.08 4614.17,524.04 4122.43,709.59 3901.08,485.64 3536.48,426.57 3267.54,432.17 3184.81,393.86 2634.94,319.59 2120.15,551.37 1776.11,430.80 1499.01,628.72 1327.44,740.37 1215.92,756.12 936.76,817.23 692.61,833.24 467.27,852.16 363.92,927.60 -77.75,1333.44 -224.93,1457.17 -403.78,1453.86 -715.72,1546.54 -1797.33,2047.29 -2046.28,2037.83 -2101.93,2050.00 -2808.51,2345.70 -3027.05,2493.21 -3423.26,2601.77 -3847.70,2854.68 -4106.39,2907.10 -4554.48,2876.93 -4848.18,2961.41 -4966.15,3121.66 -5235.59,3159.30 -5730.66,3354.17 -5718.80,3612.76 -5863.27,3849.29 -5890.24,3938.76 -5986.38,3982.23 -6283.15,4116.86 -6328.21,4229.18 -6341.00,4325.13 -6353.90,4421.87 -6426.00,5062.94 -6441.02,5196.50 -6568.69,5422.74 -6843.74,5910.19 -7234.30,6364.41 -8065.83,7293.38 -8164.15,7387.84 -8277.86,7448.34 -8397.36,7575.63 -8500.20,7581.70 -8650.20,7725.10 -8759.23,7831.11 -8882.79,8062.46 -9097.18,8142.60 -9491.68,8487.58"/>
    <poly id="220801594" type="building.yes" color="255,230,230" fill="1" layer="-1.00" shape="1238.60,1862.61 1238.88,1831.45 1200.08,1831.10 1200.31,1805.37 1175.57,1805.15 1175.05,1862.03 1238.60,1862.61"/>
    <poly id="220801595" type="building.yes" color="255,230,230" fill="1" layer="-1.00" shape="1215.97,1825.22 1235.80,1825.08 1235.66,1806.28 1215.84,1806.43 1215.97,1825.22"/>
    <poly id="220801596" type="building.yes" color="255,230,230" fill="1" layer="-1.00" shape="1177.61,1770.16 1244.20,1770.26 1244.25,1737.33 1216.25,1737.29 1216.24,1744.20 1177.65,1744.14 1177.61,1770.16"/>
    <poly id="220801623" type="building.yes" color="255,230,230" fill="1" layer="-1.00" shape="1262.49,1764.00 1283.55,1764.17 1283.95,1713.85 1262.87,1713.69 1262.49,1764.00"/>
    <poly id="224145833" type="building.yes" color="255,230,230" fill="1" layer="-1.00" shape="1886.74,2200.21 1962.87,2201.19 1963.64,2140.98 1887.51,2140.00 1886.74,2200.21"/>
    <poly id="224145835" type="building.yes" color="255,230,230" fill="1" layer="-1.00" shape="1789.03,2121.79 1884.12,2122.46 1884.25,2103.92 1789.16,2103.25 1789.03,2121.79"/>
    <poly id="224145851" type="amenity.post_office" color="237,199,199" fill="1" layer="-1.00" shape="1837.60,2048.06 1841.91,2048.09 1841.85,2056.10 1852.89,2056.19 1852.94,2050.53 1868.56,2050.66 1868.95,2002.05 1837.97,2001.81 1837.60,2048.06"/>
    <poly id="224145851#1" type="building.yes" color="255,230,230" fill="1" layer="-1.00" shape="1837.60,2048.06 1841.91,2048.09 1841.85,2056.10 1852.89,2056.19 1852.94,2050.53 1868.56,2050.66 1868.95,2002.05 1837.97,2001.81 1837.60,2048.06"/>
    <poly id="224145852" type="building.yes" color="255,230,230" fill="1" layer="-1.00" shape="1741.48,2018.62 1800.43,2018.59 1800.40,1951.62 1741.45,1951.65 1741.48,2018.62"/>
    <poly id="224145853" type="building.yes" color="255,230,230" fill="1" layer="-1.00" shape="1700.53,2027.16 1724.98,2027.16 1725.01,1951.37 1700.55,1951.36 1700.53,2027.16"/>
    <poly id="224145856" type="building.yes" color="255,230,230" fill="1" layer="-1.00" shape="1743.69,2047.90 1743.86,2034.77 1520.61,2031.96 1520.54,2038.24 1523.62,2038.27 1523.53,2045.14 1743.69,2047.90"/>
    <poly id="224145857" type="building.yes" color="255,230,230" fill="1" layer="-1.00" shape="1558.52,2067.21 1638.13,2067.91 1638.25,2054.13 1553.16,2053.38 1553.10,2060.08 1558.59,2060.13 1558.52,2067.21"/>
    <poly id="224145860" type="building.yes" color="255,230,230" fill="1" layer="-1.00" shape="1647.58,2068.44 1737.25,2070.04 1737.41,2061.89 1728.91,2061.74 1729.02,2055.56 1647.85,2054.11 1647.58,2068.44"/>
    <poly id="224145861" type="building.yes" color="255,230,230" fill="1" layer="-1.00" shape="1519.28,2087.66 1740.84,2091.40 1741.06,2078.67 1536.47,2075.20 1536.71,2061.52 1524.76,2061.32 1524.53,2074.93 1519.49,2074.84 1519.28,2087.66"/>
    <poly id="224145864" type="building.yes" color="255,230,230" fill="1" layer="-1.00" shape="1520.03,2025.40 1566.44,2025.76 1566.69,1994.21 1520.28,1993.84 1520.03,2025.40"/>
    <poly id="224145865" type="building.yes" color="255,230,230" fill="1" layer="-1.00" shape="1520.50,1983.06 1567.12,1983.65 1567.50,1952.95 1520.88,1952.37 1520.50,1983.06"/>
    <poly id="224145868" type="building.yes" color="255,230,230" fill="1" layer="-1.00" shape="1520.77,1936.00 1574.79,1935.76 1574.64,1904.12 1528.96,1904.39 1522.70,1912.37 1520.70,1921.34 1520.77,1936.00"/>
    <poly id="224145870" type="building.yes" color="255,230,230" fill="1" layer="-1.00" shape="1579.59,2031.02 1599.76,2031.22 1600.96,1913.59 1580.78,1913.38 1579.59,2031.02"/>
    <poly id="224145873" type="building.yes" color="255,230,230" fill="1" layer="-1.00" shape="1621.39,2031.49 1641.78,2031.91 1642.55,1995.41 1653.40,1995.64 1655.11,1914.90 1623.88,1914.23 1621.39,2031.49"/>
    <poly id="224148549" type="building.yes" color="255,230,230" fill="1" layer="-1.00" shape="1535.61,1602.89 1554.48,1603.08 1554.93,1558.22 1540.70,1558.09 1540.41,1586.72 1535.78,1586.68 1535.61,1602.89"/>
    <poly id="224148550" type="building.yes" color="255,230,230" fill="1" layer="-1.00" shape="1555.39,1586.08 1569.69,1586.17 1569.96,1541.95 1555.67,1541.85 1555.39,1586.08"/>
    <poly id="224148551" type="building.yes" color="255,230,230" fill="1" layer="-1.00" shape="1654.74,1591.44 1680.71,1591.68 1681.12,1548.09 1655.15,1547.85 1654.74,1591.44"/>
    <poly id="224148552" type="building.yes" color="255,230,230" fill="1" layer="-1.00" shape="1712.08,1638.20 1751.66,1638.80 1752.60,1577.21 1738.62,1577.00 1738.86,1561.45 1726.36,1561.26 1726.13,1576.68 1713.01,1576.48 1712.08,1638.20"/>
    <poly id="224148553" type="building.yes" color="255,230,230" fill="1" layer="-1.00" shape="1778.05,1631.36 1829.81,1631.66 1830.16,1572.04 1833.81,1572.07 1833.87,1560.72 1831.98,1560.71 1831.99,1558.54 1815.70,1558.45 1815.67,1562.73 1778.46,1562.51 1778.05,1631.36"/>
    <poly id="224148554" type="building.yes" color="255,230,230" fill="1" layer="-1.00" shape="1849.99,1629.61 1889.58,1629.86 1889.95,1570.30 1893.70,1570.32 1893.77,1558.66 1889.95,1558.63 1889.97,1556.28 1875.74,1556.20 1875.70,1561.07 1850.42,1560.91 1849.99,1629.61"/>
    <poly id="224148559" type="building.yes" color="255,230,230" fill="1" layer="-1.00" shape="2031.22,1736.12 2032.03,1673.40 1975.96,1672.68 1975.89,1678.62 1941.87,1678.19 1941.76,1686.91 1933.96,1686.81 1934.07,1678.63 1922.33,1678.48 1922.22,1686.97 1919.69,1686.94 1919.36,1711.58 1903.80,1711.38 1904.07,1691.13 1872.90,1690.71 1872.11,1750.30 1903.54,1750.72 1903.88,1724.76 1913.58,1724.89 1913.41,1738.15 1918.51,1738.22 1918.42,1745.57 1952.81,1746.00 1952.95,1735.12 2031.22,1736.12"/>
    <poly id="224148565" type="building.yes" color="255,230,230" fill="1" layer="-1.00" shape="1882.08,1848.46 1903.95,1848.60 1904.37,1787.91 1882.49,1787.77 1882.08,1848.46"/>
    <poly id="224148566" type="building.yes" color="255,230,230" fill="1" layer="-1.00" shape="1881.22,1904.86 1907.60,1905.04 1907.91,1858.62 1881.54,1858.42 1881.22,1904.86"/>
    <poly id="224148567" type="building.yes" color="255,230,230" fill="1" layer="-1.00" shape="1822.61,1791.97 1875.69,1792.56 1875.94,1770.33 1822.85,1769.74 1822.61,1791.97"/>
    <poly id="224148568" type="man_made.water_tower" color="255,230,230" fill="1" layer="-1.00" shape="1789.67,1805.46 1788.60,1801.25 1785.54,1798.13 1781.33,1796.97 1777.10,1798.04 1773.98,1801.09 1772.80,1805.27 1773.88,1809.49 1776.94,1812.60 1781.14,1813.77 1785.38,1812.69 1788.50,1809.65 1789.67,1805.46"/>
    <poly id="224148569" type="building.yes" color="255,230,230" fill="1" layer="-1.00" shape="1817.20,1905.21 1842.69,1905.45 1843.09,1861.98 1820.46,1861.78 1820.39,1869.00 1817.53,1868.98 1817.20,1905.21"/>
    <poly id="224148570" type="building.yes" color="255,230,230" fill="1" layer="-1.00" shape="1725.89,1882.09 1728.04,1869.81 1672.69,1859.85 1674.08,1852.18 1676.57,1852.10 1677.35,1803.26 1685.07,1803.23 1685.17,1783.12 1657.03,1782.70 1657.19,1832.37 1647.46,1832.03 1647.83,1852.25 1651.99,1852.29 1649.72,1863.74 1659.79,1865.52 1658.68,1870.23 1725.89,1882.09"/>
    <poly id="224148571" type="building.yes" color="255,230,230" fill="1" layer="-1.00" shape="1562.50,1867.98 1604.90,1867.98 1607.18,1865.63 1606.89,1860.08 1607.89,1854.89 1606.51,1850.85 1613.30,1838.63 1596.78,1828.98 1589.51,1841.79 1596.95,1846.01 1596.99,1852.52 1583.58,1852.25 1583.64,1846.22 1562.03,1846.10 1562.50,1867.98"/>
    <poly id="224148572" type="building.yes" color="255,230,230" fill="1" layer="-1.00" shape="1597.25,1774.94 1621.22,1774.95 1621.22,1760.72 1597.52,1760.73 1597.52,1764.33 1591.77,1764.34 1591.77,1778.53 1597.26,1778.53 1597.25,1774.94"/>
    <poly id="224148573" type="building.yes" color="255,230,230" fill="1" layer="-1.00" shape="1620.39,1755.69 1633.07,1755.92 1633.42,1737.27 1620.74,1737.03 1620.39,1755.69"/>
    <poly id="224148574" type="building.yes" color="255,230,230" fill="1" layer="-1.00" shape="1540.31,1747.93 1577.81,1748.44 1578.65,1684.38 1541.16,1683.88 1540.31,1747.93"/>
    <poly id="224148575" type="building.yes" color="255,230,230" fill="1" layer="-1.00" shape="1542.18,1675.34 1579.08,1675.84 1579.94,1611.43 1543.04,1610.93 1542.18,1675.34"/>
    <poly id="224148576" type="building.yes" color="255,230,230" fill="1" layer="-1.00" shape="1595.08,1671.31 1610.84,1671.45 1611.21,1629.50 1595.45,1629.36 1595.08,1671.31"/>
    <poly id="224148577" type="building.yes" color="255,230,230" fill="1" layer="-1.00" shape="1649.71,1660.69 1683.83,1661.22 1684.69,1606.72 1650.57,1606.19 1649.71,1660.69"/>
    <poly id="224148578" type="building.yes" color="255,230,230" fill="1" layer="-1.00" shape="1537.05,1828.09 1544.19,1828.18 1544.70,1791.27 1537.55,1791.18 1537.05,1828.09"/>
    <poly id="224148579" type="building.yes" color="255,230,230" fill="1" layer="-1.00" shape="1674.37,1771.77 1726.37,1771.85 1726.39,1761.58 1674.39,1761.50 1674.37,1771.77"/>
    <poly id="224151300" type="building.yes" color="255,230,230" fill="1" layer="-1.00" shape="1429.84,1625.08 1461.02,1625.25 1461.39,1551.89 1455.40,1551.86 1455.43,1545.86 1430.25,1545.74 1429.84,1625.08"/>
    <poly id="224151301" type="building.yes" color="255,230,230" fill="1" layer="-1.00" shape="1369.03,1624.77 1421.76,1625.23 1421.98,1599.99 1374.83,1599.57 1374.77,1605.38 1369.20,1605.33 1369.03,1624.77"/>
    <poly id="224151302" type="building.yes" color="255,230,230" fill="1" layer="-1.00" shape="1330.95,1632.16 1358.77,1632.38 1359.47,1543.78 1331.65,1543.55 1330.95,1632.16"/>
    <poly id="224151303" type="building.yes" color="255,230,230" fill="1" layer="-1.00" shape="1281.27,1624.39 1319.70,1624.89 1320.62,1553.63 1317.19,1553.59 1317.36,1540.82 1282.36,1540.36 1281.27,1624.39"/>
    <poly id="224151304" type="building.yes" color="255,230,230" fill="1" layer="-1.00" shape="1179.28,1588.26 1242.93,1588.95 1243.21,1563.17 1251.52,1563.26 1251.66,1549.81 1243.47,1549.72 1243.50,1547.13 1235.89,1547.04 1235.97,1540.54 1186.95,1539.99 1186.88,1546.49 1179.75,1546.42 1179.28,1588.26"/>
    <poly id="224151305" type="building.yes" color="255,230,230" fill="1" layer="-1.00" shape="1179.44,1649.54 1240.18,1649.77 1240.26,1627.73 1179.53,1627.49 1179.44,1649.54"/>
    <poly id="224151306" type="building.yes" color="255,230,230" fill="1" layer="-1.00" shape="1211.60,1727.58 1240.26,1727.81 1240.80,1659.37 1212.15,1659.14 1211.60,1727.58"/>
    <poly id="224151307" type="building.yes" color="255,230,230" fill="1" layer="-1.00" shape="1305.32,1726.96 1364.24,1727.28 1364.31,1714.54 1305.38,1714.23 1305.32,1726.96"/>
    <poly id="224151308" type="building.yes" color="255,230,230" fill="1" layer="-1.00" shape="1425.64,1823.13 1465.46,1823.37 1465.52,1813.14 1473.56,1813.20 1473.68,1793.54 1465.69,1793.48 1465.73,1786.41 1425.86,1786.17 1425.64,1823.13"/>
    <poly id="224151309" type="building.yes" color="255,230,230" fill="1" layer="-1.00" shape="1434.43,1865.93 1473.02,1866.46 1478.65,1862.74 1479.00,1841.34 1434.82,1840.98 1434.43,1865.93"/>
    <poly id="224151310" type="building.yes" color="255,230,230" fill="1" layer="-1.00" shape="1385.47,1868.22 1403.58,1868.36 1403.65,1860.05 1410.98,1860.10 1411.22,1827.82 1385.78,1827.63 1385.47,1868.22"/>
    <poly id="224151311" type="building.yes" color="255,230,230" fill="1" layer="-1.00" shape="1358.74,1869.11 1385.13,1869.30 1385.31,1846.40 1358.92,1846.21 1358.74,1869.11"/>
    <poly id="224151312" type="building.yes" color="255,230,230" fill="1" layer="-1.00" shape="1312.81,1866.95 1329.23,1867.18 1329.25,1865.62 1338.65,1865.75 1338.96,1842.99 1323.61,1842.78 1323.59,1844.33 1313.12,1844.19 1312.81,1866.95"/>
    <poly id="224151313" type="building.yes" color="255,230,230" fill="1" layer="-1.00" shape="1351.38,1826.45 1371.95,1826.70 1372.33,1794.57 1351.77,1794.32 1351.38,1826.45"/>
    <poly id="224151314" type="building.yes" color="255,230,230" fill="1" layer="-1.00" shape="1359.47,1792.48 1372.31,1792.52 1372.46,1745.56 1352.20,1745.50 1352.07,1784.47 1359.49,1784.50 1359.47,1792.48"/>
    <poly id="224151315" type="building.yes" color="255,230,230" fill="1" layer="-1.00" shape="1327.15,1826.31 1347.99,1826.59 1348.45,1794.22 1341.34,1794.12 1341.44,1787.24 1327.70,1787.05 1327.15,1826.31"/>
    <poly id="224151316" type="building.yes" color="255,230,230" fill="1" layer="-1.00" shape="1327.49,1784.68 1348.63,1784.79 1348.82,1745.54 1327.68,1745.43 1327.49,1784.68"/>
    <poly id="224151317" type="building.yes" color="255,230,230" fill="1" layer="-1.00" shape="1300.04,1764.15 1315.36,1764.32 1315.41,1748.48 1300.81,1748.44 1300.04,1764.15"/>
    <poly id="224151318" type="building.yes" color="255,230,230" fill="1" layer="-1.00" shape="1343.30,1707.04 1460.60,1707.83 1460.76,1684.80 1343.46,1684.00 1343.35,1687.05 1340.68,1687.07 1340.98,1703.40 1343.29,1703.30 1343.30,1707.04"/>
    <poly id="224151319" type="building.yes" color="255,230,230" fill="1" layer="-1.00" shape="1343.40,1676.99 1459.66,1677.73 1459.77,1659.37 1456.66,1659.36 1456.71,1655.47 1343.41,1654.46 1342.83,1656.69 1340.16,1656.67 1340.06,1673.45 1343.42,1673.48 1343.40,1676.99"/>
    <poly id="224174025" type="building.yes" color="255,230,230" fill="1" layer="-1.00" shape="1572.81,1506.25 1611.59,1507.23 1611.98,1491.60 1573.20,1490.62 1572.81,1506.25"/>
    <poly id="224174026" type="building.yes" color="255,230,230" fill="1" layer="-1.00" shape="1532.27,1477.06 1559.98,1477.41 1560.50,1437.40 1532.78,1437.05 1532.27,1477.06"/>
    <poly id="224174027" type="building.yes" color="255,230,230" fill="1" layer="-1.00" shape="1569.76,1459.15 1584.58,1459.52 1585.15,1437.15 1595.02,1437.40 1595.24,1428.71 1590.34,1428.59 1590.41,1425.93 1581.31,1425.70 1581.36,1423.69 1563.87,1423.24 1563.74,1428.27 1570.55,1428.44 1569.76,1459.15"/>
    <poly id="224174028" type="building.yes" color="255,230,230" fill="1" layer="-1.00" shape="1560.78,1422.73 1614.92,1423.92 1615.30,1406.60 1582.29,1405.88 1582.04,1417.12 1560.91,1416.65 1560.78,1422.73"/>
    <poly id="224174029" type="building.yes" color="255,230,230" fill="1" layer="-1.00" shape="1541.90,1390.00 1558.01,1389.78 1557.87,1379.95 1541.76,1380.18 1541.90,1390.00"/>
    <poly id="224174030" type="building.yes" color="255,230,230" fill="1" layer="-1.00" shape="1562.11,1388.57 1601.21,1388.55 1601.19,1367.00 1562.10,1367.02 1562.11,1388.57"/>
    <poly id="224174031" type="building.data_center" color="255,230,230" fill="1" layer="-1.00" shape="1537.39,1346.19 1609.75,1346.31 1609.84,1288.04 1594.25,1288.01 1594.29,1264.35 1559.39,1264.29 1559.38,1273.50 1537.50,1273.47 1537.39,1346.19"/>
    <poly id="224174032" type="building.yes" color="255,230,230" fill="1" layer="-1.00" shape="1595.55,1285.21 1614.62,1285.37 1614.98,1241.26 1595.92,1241.09 1595.55,1285.21"/>
    <poly id="224174033" type="building.yes" color="255,230,230" fill="1" layer="-1.00" shape="1648.71,1494.90 1717.43,1495.75 1717.65,1478.29 1714.21,1478.25 1714.26,1473.75 1653.26,1472.99 1653.20,1477.60 1648.93,1477.54 1648.71,1494.90"/>
    <poly id="224174034" type="building.yes" color="255,230,230" fill="1" layer="-1.00" shape="1691.89,1467.00 1715.05,1467.13 1714.87,1451.05 1692.31,1450.80 1691.89,1467.00"/>
    <poly id="224174035" type="building.yes" color="255,230,230" fill="1" layer="-1.00" shape="1776.81,1407.14 1722.25,1405.22 1721.43,1470.40 1764.36,1470.94 1764.81,1435.64 1776.30,1436.35 1776.81,1407.14"/>
    <poly id="224174036" type="building.yes" color="255,230,230" fill="1" layer="-1.00" shape="1870.69,1505.40 1893.44,1505.71 1893.48,1502.41 1898.14,1502.48 1898.65,1465.42 1886.33,1465.25 1886.45,1456.48 1867.49,1456.21 1867.37,1465.06 1849.63,1464.81 1849.33,1486.68 1867.94,1486.93 1867.98,1483.98 1873.75,1484.05 1873.59,1494.83 1870.84,1494.79 1870.69,1505.40"/>
    <poly id="224174037" type="building.yes" color="255,230,230" fill="1" layer="-1.00" shape="1886.97,1440.17 1906.38,1440.33 1906.74,1397.89 1892.43,1397.77 1892.31,1412.48 1884.48,1412.41 1884.27,1437.67 1886.97,1440.17"/>
    <poly id="224174038" type="building.yes" color="255,230,230" fill="1" layer="-1.00" shape="1849.84,1439.73 1872.49,1439.78 1875.25,1437.32 1875.29,1418.79 1867.74,1418.79 1867.78,1397.23 1849.92,1397.19 1849.84,1439.73"/>
    <poly id="224174039" type="building.yes" color="255,230,230" fill="1" layer="-1.00" shape="1914.72,1486.85 1926.56,1487.06 1927.13,1454.52 1915.30,1454.31 1914.72,1486.85"/>
    <poly id="224174040" type="building.yes" color="255,230,230" fill="1" layer="-1.00" shape="1911.60,1511.17 1918.45,1511.09 1918.26,1495.59 1911.41,1495.67 1911.60,1511.17"/>
    <poly id="224174043" type="building.yes" color="255,230,230" fill="1" layer="-1.00" shape="1914.66,1428.89 1927.19,1429.08 1926.97,1444.99 1934.08,1445.09 1934.18,1438.96 1951.45,1439.21 1952.01,1401.51 1915.07,1400.97 1914.66,1428.89"/>
    <poly id="224174044" type="building.yes" color="255,230,230" fill="1" layer="-1.00" shape="1913.09,1452.18 1924.79,1452.24 1924.86,1440.12 1913.16,1440.05 1913.09,1452.18"/>
    <poly id="224174080" type="building.yes" color="255,230,230" fill="1" layer="-1.00" shape="1854.27,1368.32 1884.11,1368.56 1884.22,1355.04 1892.04,1355.10 1892.59,1286.78 1854.94,1286.48 1854.27,1368.32"/>
    <poly id="224174081" type="building.yes" color="255,230,230" fill="1" layer="-1.00" shape="1795.03,1334.08 1804.75,1334.16 1805.14,1290.55 1795.41,1290.46 1795.03,1334.08"/>
    <poly id="224174082" type="building.yes" color="255,230,230" fill="1" layer="-1.00" shape="1821.64,1226.03 1840.50,1222.14 1838.34,1211.78 1819.49,1215.67 1821.64,1226.03"/>
    <poly id="224195514" type="building.yes" color="255,230,230" fill="1" layer="-1.00" shape="1922.49,1097.92 1941.42,1098.18 1942.08,1048.31 1928.11,1048.12 1928.18,1042.42 1923.23,1042.35 1922.49,1097.92"/>
    <poly id="28485534" type="amenity.school" color="237,199,199" fill="1" layer="-1.00" shape="360.96,745.18 410.28,732.77 509.87,732.33 527.58,730.73 548.34,731.01 526.25,694.66 546.40,686.92 553.46,656.17 564.52,654.16 569.60,633.24 607.56,642.80 606.34,648.86 623.63,648.92 687.53,649.19 689.85,437.04 660.04,436.55 642.25,436.75 556.02,435.08 481.36,432.69 479.19,455.02 429.96,452.37 424.66,451.96 421.17,509.19 370.25,541.36 327.32,545.01 346.48,672.50 360.96,745.18"/>
    <poly id="28485580" type="amenity.parking" color="184,184,179" fill="1" layer="-1.00" shape="454.69,703.72 527.58,730.73 548.34,731.01 526.25,694.66 458.77,695.26 454.69,703.72"/>
    <poly id="289227844" type="landuse.residential" color="235,235,227" fill="1" layer="-3.00" shape="1082.47,1077.57 1241.06,987.38 1184.06,855.16 1185.50,828.26 1180.74,828.16 1181.41,814.50 1039.29,811.57 1035.73,985.88 1054.72,1038.31 1082.47,1077.57"/>
    <poly id="306027972" type="building.yes" color="255,230,230" fill="1" layer="-1.00" shape="1776.30,1436.35 1799.90,1436.08 1799.31,1482.51 1836.81,1482.98 1837.77,1406.67 1776.81,1407.14 1776.30,1436.35"/>
    <poly id="306027972#1" type="shop.electronics" color="237,199,255" fill="1" layer="-1.00" shape="1776.30,1436.35 1799.90,1436.08 1799.31,1482.51 1836.81,1482.98 1837.77,1406.67 1776.81,1407.14 1776.30,1436.35"/>
    <poly id="307773449" type="landuse.commercial" color="209,209,204" fill="1" layer="-3.00" shape="1192.14,2189.69 1192.18,2313.13 1206.37,2352.82 1228.42,2373.87 1330.34,2376.90 1332.59,2289.98 1396.76,2292.31 1471.65,2295.20 1476.31,2126.24 1251.33,2123.03 1250.66,2183.58 1191.52,2182.45 1192.14,2189.69"/>
    <poly id="364395955" type="landuse.residential" color="235,235,227" fill="1" layer="-3.00" shape="1241.06,987.38 1184.06,855.16 1185.50,828.26 1187.44,828.28 1204.85,828.51 1220.79,828.73 1236.90,828.96 1239.79,829.00 1252.60,829.18 1252.24,855.61 1252.12,857.72 1344.69,859.38 1346.54,788.96 1495.07,791.09 1493.30,874.24 1452.33,877.63 1446.65,923.69 1334.59,945.30 1241.06,987.38"/>
    <poly id="368341772" type="landuse.railway" color="194,194,130" fill="1" layer="-3.00" shape="3413.04,192.28 3431.22,223.47 3483.84,212.23 3173.43,366.95 3110.16,424.30 3046.45,412.34 2675.56,607.73 2580.27,659.74 2271.73,830.35 1998.70,977.96 1522.31,1231.57 1487.25,1239.50 1046.78,1478.39 957.87,1526.74 714.08,1655.52 674.56,1676.65 226.68,1906.60 54.54,1970.28 -56.33,1987.51 -397.00,2001.23 -526.03,1984.70 -649.16,1979.86 -966.91,1975.34 -1527.77,1967.39 -1549.47,1967.11 -1548.73,1986.99 -1714.94,1989.48 -1820.13,2001.60 -1925.89,1999.61 -1979.72,1998.60 -1979.59,1985.71 -1979.22,1958.22 -1918.44,1954.19 -1795.81,1947.46 -1795.41,1938.26 -1745.07,1937.47 -1731.94,1937.27 -1673.70,1937.93 -940.60,1952.61 -624.71,1959.18 -582.46,1945.96 -554.54,1940.47 -100.73,1951.03 -8.77,1945.26 93.40,1916.09 126.33,1908.42 336.29,1808.23 682.61,1625.05 726.63,1591.70 804.33,1551.77 804.11,1572.16 951.37,1495.53 1036.15,1449.02 1482.28,1213.20 1532.97,1184.02 2520.78,656.52 2580.74,632.87 2602.08,627.82 2605.92,624.08 3025.83,397.13 3140.80,334.31 3219.85,293.44 3413.04,192.28"/>
    <poly id="37767321" type="building.yes" color="255,230,230" fill="1" layer="-1.00" shape="1025.88,2092.36 1026.04,2075.86 1028.05,2058.01 1034.06,2040.20 1045.64,2018.15 1040.50,2015.46 1055.82,1985.85 1097.60,2008.64 1054.77,2091.04 1050.77,2089.06 1049.46,2090.92 1036.34,2082.99 1030.21,2094.78 1025.88,2092.36"/>
    <poly id="37767322" type="building.yes" color="255,230,230" fill="1" layer="-1.00" shape="1115.63,2164.57 1110.98,2164.41 1098.36,2137.79 1094.12,2108.22 1105.34,2055.36 1112.26,2048.63 1121.37,2049.48 1128.90,2055.62 1138.74,2059.51 1135.59,2151.07 1116.12,2150.40 1115.63,2164.57"/>
    <poly id="37767323" type="building.yes" color="255,230,230" fill="1" layer="-1.00" shape="1138.50,2047.13 1235.96,2046.76 1235.89,2028.34 1249.40,2028.29 1249.37,2021.37 1228.97,2010.55 1203.96,2003.46 1173.10,2002.83 1173.18,1999.01 1141.80,1998.37 1141.55,2010.35 1134.74,2013.84 1138.40,2020.91 1138.50,2047.13"/>
    <poly id="37767324" type="building.yes" color="255,230,230" fill="1" layer="-1.00" shape="1045.57,1949.50 1129.01,1992.87 1142.39,1971.35 1147.33,1968.65 1144.59,1964.12 1150.78,1952.96 1120.98,1936.98 1118.87,1941.07 1105.08,1933.03 1081.22,1923.87 1057.65,1920.38 1044.21,1920.23 1041.90,1925.10 1053.67,1931.28 1045.67,1943.71 1048.03,1945.27 1045.57,1949.50"/>
    <poly id="37767325" type="amenity.parking" color="184,184,179" fill="1" layer="-1.00" shape="1178.58,2160.62 1186.27,2160.71 1186.21,2166.10 1228.15,2166.56 1228.21,2161.43 1235.67,2161.51 1236.59,2077.93 1230.51,2077.87 1230.60,2069.82 1179.59,2069.26 1178.58,2160.62"/>
    <poly id="37767327" type="building.yes" color="255,230,230" fill="1" layer="-1.00" shape="1264.52,2054.43 1265.12,2015.44 1285.24,2015.75 1284.63,2054.74 1264.52,2054.43"/>
    <poly id="37767329" type="building.yes" color="255,230,230" fill="1" layer="-1.00" shape="1300.91,2099.29 1349.75,2100.17 1349.82,2096.60 1381.89,2097.17 1381.81,2101.08 1439.61,2102.14 1440.40,2058.32 1418.19,2057.92 1418.74,2027.75 1407.26,2027.55 1407.10,2035.90 1392.67,2035.64 1392.80,2028.41 1341.82,2027.49 1341.71,2033.74 1325.82,2033.45 1325.91,2028.31 1302.21,2027.88 1300.91,2099.29"/>
    <poly id="37767330" type="building.yes" color="255,230,230" fill="1" layer="-1.00" shape="1281.80,1984.54 1315.86,1984.99 1315.99,1975.17 1323.61,1975.27 1327.98,1968.13 1337.93,1974.18 1341.21,1968.82 1352.50,1975.69 1356.19,1969.67 1366.16,1975.73 1366.03,1984.85 1408.79,1985.46 1409.61,1928.18 1397.50,1928.01 1397.61,1919.66 1362.81,1919.16 1362.76,1922.52 1329.03,1922.06 1329.07,1919.08 1295.85,1918.64 1295.75,1926.25 1282.58,1926.07 1281.80,1984.54"/>
    <poly id="37783180" type="building.yes" color="255,230,230" fill="1" layer="-1.00" shape="747.65,2175.33 795.92,2192.18 812.80,2143.95 765.29,2126.69 747.65,2175.33"/>
    <poly id="37783182" type="building.yes" color="255,230,230" fill="1" layer="-1.00" shape="786.60,2088.84 834.74,2106.51 851.83,2058.68 803.88,2040.42 786.60,2088.84"/>
    <poly id="37783183" type="building.yes" color="255,230,230" fill="1" layer="-1.00" shape="773.09,2022.20 820.78,2039.37 838.62,1990.90 790.59,1973.10 773.09,2022.20"/>
    <poly id="37783184" type="building.yes" color="255,230,230" fill="1" layer="-1.00" shape="838.36,2041.63 885.62,2059.40 903.78,2011.50 856.52,1993.72 838.36,2041.63"/>
    <poly id="37783185" type="building.yes" color="255,230,230" fill="1" layer="-1.00" shape="760.39,1955.04 808.06,1972.59 825.94,1923.82 777.79,1906.74 760.39,1955.04"/>
    <poly id="37783186" type="building.yes" color="255,230,230" fill="1" layer="-1.00" shape="828.68,1976.15 875.59,1994.83 893.61,1945.82 847.45,1927.91 828.68,1976.15"/>
    <poly id="37877514" type="landuse.residential" color="235,235,227" fill="1" layer="-3.00" shape="126.33,1908.42 336.29,1808.23 682.61,1625.05 685.77,1407.64 687.62,1281.89 661.01,1286.71 568.43,1291.52 421.11,1277.80 281.80,1226.33 176.62,1182.80 29.97,1176.66 -145.67,1180.82 -305.31,1181.36 -369.32,1195.05 -413.91,1241.51 -482.49,1398.20 -559.45,1486.68 -645.21,1544.80 -757.36,1582.95 -872.16,1583.99 -939.76,1579.48 -940.60,1952.61 -624.71,1959.18 -582.46,1945.96 -554.54,1940.47 -100.73,1951.03 -8.77,1945.26 10.48,1781.98 52.71,1780.40 59.81,1757.34 106.65,1777.83 93.40,1916.09 126.33,1908.42"/>
    <poly id="37891392" type="landuse.residential" color="235,235,227" fill="1" layer="-3.00" shape="1034.22,41.44 1042.47,40.97 1050.25,40.50 1098.86,44.83 1143.40,59.18 1154.58,61.89 1227.76,63.61 1227.25,92.99 1231.02,104.40 1509.55,107.15 1495.07,791.09 1493.30,874.24 1452.33,877.63 1446.65,923.69 1334.59,945.30 1254.00,984.06 1173.10,1038.07 1071.32,1087.00 1039.94,1104.62 1020.98,1107.86 969.85,1129.06 934.82,1077.41 918.00,1063.04 894.70,1054.70 814.14,1046.18 799.80,1040.07 783.22,1014.99 764.88,980.48 741.70,910.03 737.22,810.95 737.97,757.86 755.80,757.49 757.54,702.28 746.55,702.28 735.90,677.71 732.50,640.81 743.20,50.69 771.21,51.13 771.68,38.91 1034.22,41.44"/>
    <poly id="37891406" type="landuse.commercial" color="209,209,204" fill="1" layer="-3.00" shape="1527.84,924.65 1446.65,923.69 1452.33,877.63 1493.30,874.24 1498.47,886.31 1519.22,886.86 1568.05,888.06 1564.80,990.99 1527.88,989.85 1527.84,924.65"/>
    <poly id="37891435" type="amenity.school" color="237,199,199" fill="1" layer="-1.00" shape="1526.17,715.81 1563.91,721.59 1582.59,729.88 1594.18,716.18 1797.51,720.33 1794.20,567.88 1725.68,552.86 1653.18,535.19 1594.85,535.17 1529.67,535.69 1526.17,715.81"/>
    <poly id="37891437" type="building.yes" color="255,230,230" fill="1" layer="-1.00" shape="1725.75,1160.84 1724.31,1359.90 1655.14,1359.14 1654.58,1203.20 1662.19,1202.53 1662.64,1161.66 1725.75,1160.84"/>