<net xmlns:xsi="http://www.w3.org/2001/XMLSchema-instance" junctionCornerDetail="5" version="0.27" xsi:noNamespaceSchemaLocation="http://sumo.dlr.de/xsd/net_file.xsd">

    <location convBoundary="123.22,119.71,2283.45,2667.62" netOffset="-590626.81,-4134487.52" origBoundary="-121.976477,37.352603,-121.947560,37.386209" projParameter="+proj=utm +zone=10 +ellps=WGS84 +datum=WGS84 +units=m +no_defs" />

    <type allow="pedestrian" id="highway.bridleway" numLanes="1" oneway="1" priority="1" speed="2.78" width="2.00" />
    <type allow="bus" id="highway.bus_guideway" numLanes="1" oneway="1" priority="1" speed="8.33" />
    <type allow="bicycle" id="highway.cycleway" numLanes="1" oneway="0" priority="1" speed="5.56" width="1.00" />
    <type allow="pedestrian" id="highway.footway" numLanes="1" oneway="1" priority="1" speed="2.78" width="2.00" />
    <type allow="army" id="highway.ford" numLanes="1" oneway="0" priority="1" speed="2.78" />
    <type disallow="tram rail_urban rail rail_electric ship" id="highway.living_street" numLanes="1" oneway="0" priority="3" speed="2.78" />
    <type allow="private emergency authority army vip passenger hov taxi bus coach delivery truck trailer motorcycle evehicle custom1 custom2" id="highway.motorway" numLanes="2" oneway="1" priority="13" speed="44.44" />
    <type allow="private emergency authority army vip passenger hov taxi bus coach delivery truck trailer motorcycle evehicle custom1 custom2" id="highway.motorway_link" numLanes="1" oneway="1" priority="12" speed="22.22" />
    <type allow="bicycle pedestrian" id="highway.path" numLanes="1" oneway="1" priority="1" speed="2.78" width="2.00" />
    <type allow="pedestrian" id="highway.pedestrian" numLanes="1" oneway="1" priority="1" speed="2.78" width="2.00" />
    <type disallow="tram rail_urban rail rail_electric ship" id="highway.primary" numLanes="2" oneway="0" priority="9" speed="27.78" />
    <type disallow="tram rail_urban rail rail_electric ship" id="highway.primary_link" numLanes="1" oneway="0" priority="8" speed="22.22" />
    <type allow="vip" id="highway.raceway" numLanes="2" oneway="0" priority="14" speed="83.33" />
    <type disallow="tram rail_urban rail rail_electric ship" id="highway.residential" numLanes="1" oneway="0" priority="4" speed="13.89" />
    <type disallow="tram rail_urban rail rail_electric ship" id="highway.secondary" numLanes="2" oneway="0" priority="7" speed="27.78" />
    <type disallow="tram rail_urban rail rail_electric ship" id="highway.secondary_link" numLanes="1" oneway="0" priority="6" speed="22.22" />
    <type allow="delivery bicycle pedestrian" id="highway.service" numLanes="1" oneway="0" priority="2" speed="5.56" />
    <type disallow="tram rail_urban rail rail_electric ship" id="highway.services" numLanes="1" oneway="0" priority="1" speed="8.33" />
    <type allow="pedestrian" id="highway.stairs" numLanes="1" oneway="1" priority="1" speed="1.39" width="2.00" />
    <type allow="pedestrian" id="highway.step" numLanes="1" oneway="1" priority="1" speed="1.39" width="2.00" />
    <type allow="pedestrian" id="highway.steps" numLanes="1" oneway="1" priority="1" speed="1.39" width="2.00" />
    <type disallow="tram rail_urban rail rail_electric ship" id="highway.tertiary" numLanes="1" oneway="0" priority="6" speed="22.22" />
    <type disallow="tram rail_urban rail rail_electric ship" id="highway.tertiary_link" numLanes="1" oneway="0" priority="5" speed="22.22" />
    <type disallow="tram rail_urban rail rail_electric ship" id="highway.track" numLanes="1" oneway="0" priority="1" speed="5.56" />
    <type disallow="tram rail_urban rail rail_electric bicycle pedestrian ship" id="highway.trunk" numLanes="2" oneway="0" priority="11" speed="27.78" />
    <type disallow="tram rail_urban rail rail_electric bicycle pedestrian ship" id="highway.trunk_link" numLanes="1" oneway="0" priority="10" speed="22.22" />
    <type disallow="tram rail_urban rail rail_electric ship" id="highway.unclassified" numLanes="1" oneway="0" priority="5" speed="13.89" />
    <type disallow="tram rail_urban rail rail_electric ship" id="highway.unsurfaced" numLanes="1" oneway="0" priority="1" speed="8.33" />
    <type allow="rail_urban" id="railway.light_rail" numLanes="1" oneway="1" priority="15" speed="27.78" />
    <type allow="rail" id="railway.preserved" numLanes="1" oneway="1" priority="15" speed="27.78" />
    <type allow="rail rail_electric" id="railway.rail" numLanes="1" oneway="1" priority="15" speed="83.33" />
    <type allow="rail_urban" id="railway.subway" numLanes="1" oneway="1" priority="15" speed="27.78" />
    <type allow="tram" id="railway.tram" numLanes="1" oneway="1" priority="15" speed="13.89" />

    <edge from="65513493" id="-28485278" name="North Monroe Street" priority="7" to="65596350" type="highway.secondary">
        <lane disallow="tram rail_urban rail rail_electric ship" id="-28485278_0" index="0" length="49.51" shape="645.41,1274.47 693.36,1264.43" speed="27.78" />
        <lane disallow="tram rail_urban rail rail_electric ship" id="-28485278_1" index="1" length="49.51" shape="646.09,1277.70 694.03,1267.66" speed="27.78" />
    </edge>
    <edge from="cluster_437331709_665538331" id="-28485279#0" name="North Monroe Street" priority="7" shape="707.25,1265.59 716.91,1262.94" to="312939138" type="highway.secondary">
        <lane disallow="tram rail_urban rail rail_electric ship" id="-28485279#0_0" index="0" length="12.68" shape="706.08,1260.78 715.46,1258.21" speed="27.78" />
        <lane disallow="tram rail_urban rail rail_electric ship" id="-28485279#0_1" index="1" length="12.68" shape="706.95,1263.96 716.33,1261.39" speed="27.78" />
    </edge>
    <edge from="65596350" id="-28485279#1" name="North Monroe Street" priority="7" shape="694.61,1269.23 707.25,1265.59" to="cluster_437331709_665538331" type="highway.secondary">
        <lane disallow="tram rail_urban rail rail_electric ship" id="-28485279#1_0" index="0" length="15.82" shape="693.47,1264.41 705.74,1260.87" speed="27.78" />
        <lane disallow="tram rail_urban rail rail_electric ship" id="-28485279#1_1" index="1" length="15.82" shape="694.39,1267.58 706.65,1264.04" speed="27.78" />
    </edge>
    <edge from="4951309139" id="-306027968#0" name="North Monroe Street" priority="7" to="668437492" type="highway.secondary">
        <lane disallow="tram rail_urban rail rail_electric ship" id="-306027968#0_0" index="0" length="9.22" shape="1539.90,932.77 1541.48,932.88" speed="13.41" />
        <lane disallow="tram rail_urban rail rail_electric ship" id="-306027968#0_1" index="1" length="9.22" shape="1539.68,936.06 1541.26,936.17" speed="13.41" />
    </edge>
    <edge from="65596348" id="-306027968#1" name="North Monroe Street" priority="7" to="4951309139" type="highway.secondary">
        <lane disallow="tram rail_urban rail rail_electric ship" id="-306027968#1_0" index="0" length="27.91" shape="1519.69,931.40 1539.61,932.75" speed="13.41" />
        <lane disallow="tram rail_urban rail rail_electric ship" id="-306027968#1_1" index="1" length="27.91" shape="1519.47,934.69 1539.38,936.04" speed="13.41" />
    </edge>
    <edge from="4169821895" id="-416151846" name="Monroe Street" priority="7" to="65543290" type="highway.secondary">
        <lane disallow="tram rail_urban rail rail_electric ship" id="-416151846_0" index="0" length="43.23" shape="1045.94,1104.72 1082.68,1087.87" speed="15.65" />
        <lane disallow="tram rail_urban rail rail_electric ship" id="-416151846_1" index="1" length="43.23" shape="1047.32,1107.72 1084.05,1090.87" speed="15.65" />
        <lane disallow="tram rail_urban rail rail_electric ship" id="-416151846_2" index="2" length="43.23" shape="1048.70,1110.72 1085.43,1093.87" speed="15.65" />
    </edge>
    <edge from="4913410599" id="-416151847#0" name="Monroe Street" priority="7" shape="962.07,1155.49 1027.08,1124.00 1048.10,1112.81" to="4169821895" type="highway.secondary">
        <lane disallow="tram rail_urban rail rail_electric ship" id="-416151847#0_0" index="0" length="96.05" shape="960.05,1150.97 1024.84,1119.59 1044.57,1109.08" speed="15.65" />
        <lane disallow="tram rail_urban rail rail_electric ship" id="-416151847#0_1" index="1" length="96.05" shape="961.49,1153.94 1026.33,1122.53 1046.12,1111.99" speed="15.65" />
    </edge>
    <edge from="cluster_1113311817_665538341_665538346" id="-416151847#1" name="Monroe Street" priority="7" shape="936.77,1165.95 955.61,1158.61 962.07,1155.49" to="4913410599" type="highway.secondary">
        <lane disallow="tram rail_urban rail rail_electric ship" id="-416151847#1_0" index="0" length="39.00" shape="934.97,1161.34 953.63,1154.07 959.78,1151.10" speed="15.65" />
        <lane disallow="tram rail_urban rail rail_electric ship" id="-416151847#1_1" index="1" length="39.00" shape="936.17,1164.41 954.95,1157.10 961.22,1154.07" speed="15.65" />
    </edge>
    <edge from="65511201" id="-416151865" name="Scott Boulevard" priority="7" to="4169821892" type="highway.secondary">
        <lane disallow="tram rail_urban rail rail_electric ship" id="-416151865_0" index="0" length="29.21" shape="1508.70,724.25 1508.90,695.19" speed="15.65" />
        <lane disallow="tram rail_urban rail rail_electric ship" id="-416151865_1" index="1" length="29.21" shape="1512.00,724.27 1512.20,695.21" speed="15.65" />
    </edge>
    <edge from="65482985" id="-416151867#0" name="Scott Boulevard" priority="7" shape="1512.54,785.44 1513.19,749.50 1513.65,724.43" to="65511201" type="highway.secondary">
        <lane disallow="tram rail_urban rail rail_electric ship" id="-416151867#0_0" index="0" length="61.02" shape="1507.59,785.21 1508.24,749.41 1508.70,724.49" speed="15.65" />
        <lane disallow="tram rail_urban rail rail_electric ship" id="-416151867#0_1" index="1" length="61.02" shape="1510.89,785.27 1511.54,749.47 1512.00,724.55" speed="15.65" />
    </edge>
    <edge from="1123102902" id="-416151867#1" name="Scott Boulevard" priority="7" to="65482985" type="highway.secondary">
        <lane disallow="tram rail_urban rail rail_electric ship" id="-416151867#1_0" index="0" length="26.54" shape="1506.72,811.68 1507.59,785.42" speed="15.65" />
        <lane disallow="tram rail_urban rail rail_electric ship" id="-416151867#1_1" index="1" length="26.54" shape="1510.02,811.79 1510.89,785.53" speed="15.65" />
    </edge>
    <edge from="cluster_2145618890_4626297886" id="-416221931#0" name="Scott Boulevard" priority="7" shape="1500.64,2116.79 1499.80,2243.79" to="4170407984" type="highway.secondary">
        <lane disallow="tram rail_urban rail rail_electric ship" id="-416221931#0_0" index="0" length="128.55" shape="1508.89,2116.84 1508.05,2243.84" speed="17.88" />
        <lane disallow="tram rail_urban rail rail_electric ship" id="-416221931#0_1" index="1" length="128.55" shape="1505.59,2116.82 1504.75,2243.82" speed="17.88" />
        <lane disallow="tram rail_urban rail rail_electric ship" id="-416221931#0_2" index="2" length="128.55" shape="1502.29,2116.80 1501.45,2243.80" speed="17.88" />
    </edge>
    <edge from="860897868" id="-417013156#0" name="Walsh Avenue" priority="7" to="1106542164" type="highway.secondary">
        <lane disallow="tram rail_urban rail rail_electric ship" id="-417013156#0_0" index="0" length="21.56" shape="641.85,1870.04 659.08,1867.68" speed="27.78" />
        <lane disallow="tram rail_urban rail rail_electric ship" id="-417013156#0_1" index="1" length="21.56" shape="642.30,1873.31 659.53,1870.94" speed="27.78" />
    </edge>
    <edge from="4626046083" id="-417013156#1" name="Walsh Avenue" priority="7" shape="623.03,1878.87 630.39,1876.93 642.39,1874.96" to="860897868" type="highway.secondary">
        <lane disallow="tram rail_urban rail rail_electric ship" id="-417013156#1_0" index="0" length="19.77" shape="621.91,1874.05 629.36,1872.08 641.46,1870.10" speed="27.78" />
        <lane disallow="tram rail_urban rail rail_electric ship" id="-417013156#1_1" index="1" length="19.77" shape="622.75,1877.24 630.05,1875.31 641.99,1873.35" speed="27.78" />
    </edge>
    <edge from="65573004" id="-417013156#10" name="Walsh Avenue" priority="7" shape="375.37,1994.80 392.40,1985.72 461.97,1948.66" to="4913381030" type="highway.secondary">
        <lane disallow="tram rail_urban rail rail_electric ship" id="-417013156#10_0" index="0" length="98.12" shape="373.04,1990.43 390.07,1981.35 459.51,1944.36" speed="27.78" />
        <lane disallow="tram rail_urban rail rail_electric ship" id="-417013156#10_1" index="1" length="98.12" shape="374.59,1993.34 391.62,1984.26 461.06,1947.27" speed="27.78" />
    </edge>
    <edge from="4913377516" id="-417013156#2" name="Walsh Avenue" priority="7" to="4626046083" type="highway.secondary">
        <lane disallow="tram rail_urban rail rail_electric ship" id="-417013156#2_0" index="0" length="12.64" shape="609.69,1877.25 621.63,1874.12" speed="27.78" />
        <lane disallow="tram rail_urban rail rail_electric ship" id="-417013156#2_1" index="1" length="12.64" shape="610.53,1880.45 622.47,1877.31" speed="27.78" />
    </edge>
    <edge from="4913381021" id="-417013156#3" name="Walsh Avenue" priority="7" shape="568.47,1895.33 586.18,1888.56 610.80,1882.08" to="4913377516" type="highway.secondary">
        <lane disallow="tram rail_urban rail rail_electric ship" id="-417013156#3_0" index="0" length="44.42" shape="566.84,1890.65 584.66,1883.84 609.40,1877.33" speed="27.78" />
        <lane disallow="tram rail_urban rail rail_electric ship" id="-417013156#3_1" index="1" length="44.42" shape="568.02,1893.74 585.67,1886.99 610.23,1880.52" speed="27.78" />
    </edge>
    <edge from="4913381026" id="-417013156#4" name="Walsh Avenue" priority="7" to="4913381021" type="highway.secondary">
        <lane disallow="tram rail_urban rail rail_electric ship" id="-417013156#4_0" index="0" length="20.54" shape="547.66,1897.97 566.57,1890.76" speed="27.78" />
        <lane disallow="tram rail_urban rail rail_electric ship" id="-417013156#4_1" index="1" length="20.54" shape="548.83,1901.05 567.74,1893.84" speed="27.78" />
    </edge>
    <edge from="4558371149" id="-417013156#5" name="Walsh Avenue" priority="7" shape="526.96,1914.01 545.73,1904.01 549.28,1902.65" to="4913381026" type="highway.secondary">
        <lane disallow="tram rail_urban rail rail_electric ship" id="-417013156#5_0" index="0" length="25.07" shape="524.76,1909.57 543.67,1899.50 547.37,1898.08" speed="27.78" />
        <lane disallow="tram rail_urban rail rail_electric ship" id="-417013156#5_1" index="1" length="25.07" shape="526.32,1912.48 545.04,1902.51 548.55,1901.16" speed="27.78" />
    </edge>
    <edge from="4913368182" id="-417013156#6" name="Walsh Avenue" priority="7" to="4558371149" type="highway.secondary">
        <lane disallow="tram rail_urban rail rail_electric ship" id="-417013156#6_0" index="0" length="26.59" shape="501.30,1922.08 524.50,1909.71" speed="27.78" />
        <lane disallow="tram rail_urban rail rail_electric ship" id="-417013156#6_1" index="1" length="26.59" shape="502.86,1924.99 526.05,1912.62" speed="27.78" />
    </edge>
    <edge from="4913381029" id="-417013156#7" name="Walsh Avenue" priority="7" to="4913368182" type="highway.secondary">
        <lane disallow="tram rail_urban rail rail_electric ship" id="-417013156#7_0" index="0" length="27.79" shape="476.64,1935.22 501.04,1922.22" speed="27.78" />
        <lane disallow="tram rail_urban rail rail_electric ship" id="-417013156#7_1" index="1" length="27.79" shape="478.19,1938.13 502.59,1925.13" speed="27.78" />
    </edge>
    <edge from="4913368179" id="-417013156#8" name="Walsh Avenue" priority="7" to="4913381029" type="highway.secondary">
        <lane disallow="tram rail_urban rail rail_electric ship" id="-417013156#8_0" index="0" length="10.72" shape="467.31,1940.19 476.64,1935.22" speed="27.78" />
        <lane disallow="tram rail_urban rail rail_electric ship" id="-417013156#8_1" index="1" length="10.72" shape="468.87,1943.10 478.19,1938.13" speed="27.78" />
    </edge>
    <edge from="4913381030" id="-417013156#9" name="Walsh Avenue" priority="7" to="4913368179" type="highway.secondary">
        <lane disallow="tram rail_urban rail rail_electric ship" id="-417013156#9_0" index="0" length="8.55" shape="459.77,1944.22 467.04,1940.34" speed="27.78" />
        <lane disallow="tram rail_urban rail rail_electric ship" id="-417013156#9_1" index="1" length="8.55" shape="461.32,1947.13 468.60,1943.25" speed="27.78" />
    </edge>
    <edge from="65572998" id="-417680663" name="Walsh Avenue" priority="7" shape="1501.91,1887.07 1546.58,1887.66 1603.47,1888.51 1638.25,1893.60" to="4602548663" type="highway.secondary">
        <lane disallow="tram rail_urban rail rail_electric ship" id="-417680663_0" index="0" length="136.72" shape="1513.38,1882.27 1546.65,1882.71 1603.87,1883.57 1638.82,1888.68" speed="27.78" />
        <lane disallow="tram rail_urban rail rail_electric ship" id="-417680663_1" index="1" length="136.72" shape="1513.34,1885.57 1546.60,1886.01 1603.60,1886.86 1638.34,1891.95" speed="27.78" />
    </edge>
    <edge from="2145618948" id="-417680679#0" name="Walsh Avenue" priority="7" shape="1421.04,1885.46 1450.64,1886.05 1501.91,1887.07" to="65572998" type="highway.secondary">
        <lane disallow="tram rail_urban rail rail_electric ship" id="-417680679#0_0" index="0" length="80.89" shape="1421.14,1880.51 1450.74,1881.10 1490.61,1881.89" speed="27.78" />
        <lane disallow="tram rail_urban rail rail_electric ship" id="-417680679#0_1" index="1" length="80.89" shape="1421.07,1883.81 1450.67,1884.40 1490.55,1885.19" speed="27.78" />
    </edge>
    <edge from="4913410552" id="-417680679#1" name="Walsh Avenue" priority="7" to="2145618948" type="highway.secondary">
        <lane disallow="tram rail_urban rail rail_electric ship" id="-417680679#1_0" index="0" length="73.56" shape="1347.59,1879.05 1421.14,1880.51" speed="27.78" />
        <lane disallow="tram rail_urban rail rail_electric ship" id="-417680679#1_1" index="1" length="73.56" shape="1347.52,1882.35 1421.07,1883.81" speed="27.78" />
    </edge>
    <edge from="4913410558" id="-417680679#2" name="Walsh Avenue" priority="7" to="4913410552" type="highway.secondary">
        <lane disallow="tram rail_urban rail rail_electric ship" id="-417680679#2_0" index="0" length="45.37" shape="1302.23,1878.15 1347.59,1879.05" speed="27.78" />
        <lane disallow="tram rail_urban rail rail_electric ship" id="-417680679#2_1" index="1" length="45.37" shape="1302.16,1881.45 1347.52,1882.35" speed="27.78" />
    </edge>
    <edge from="2145618954" id="-417680679#3" name="Walsh Avenue" priority="7" to="4913410558" type="highway.secondary">
        <lane disallow="tram rail_urban rail rail_electric ship" id="-417680679#3_0" index="0" length="30.95" shape="1271.44,1877.53 1302.23,1878.15" speed="27.78" />
        <lane disallow="tram rail_urban rail rail_electric ship" id="-417680679#3_1" index="1" length="30.95" shape="1271.37,1880.83 1302.16,1881.45" speed="27.78" />
    </edge>
    <edge from="2145618872" id="-417680679#4" name="Walsh Avenue" priority="7" to="2145618954" type="highway.secondary">
        <lane disallow="tram rail_urban rail rail_electric ship" id="-417680679#4_0" index="0" length="21.13" shape="1250.31,1877.12 1271.14,1877.53" speed="27.78" />
        <lane disallow="tram rail_urban rail rail_electric ship" id="-417680679#4_1" index="1" length="21.13" shape="1250.24,1880.42 1271.07,1880.83" speed="27.78" />
    </edge>
    <edge from="cluster_2145619070_65573000" id="-417680679#5" name="Walsh Avenue" priority="7" shape="1159.94,1880.29 1250.06,1882.07" to="2145618872" type="highway.secondary">
        <lane disallow="tram rail_urban rail rail_electric ship" id="-417680679#5_0" index="0" length="92.11" shape="1160.04,1875.34 1250.01,1877.12" speed="27.78" />
        <lane disallow="tram rail_urban rail rail_electric ship" id="-417680679#5_1" index="1" length="92.11" shape="1159.97,1878.64 1249.94,1880.42" speed="27.78" />
    </edge>
    <edge from="4913410581" id="-417680679#7" name="Walsh Avenue" priority="7" shape="1106.92,1880.56 1156.00,1880.31" to="cluster_2145619070_65573000" type="highway.secondary">
        <lane disallow="tram rail_urban rail rail_electric ship" id="-417680679#7_0" index="0" length="51.05" shape="1106.89,1875.61 1155.97,1875.36" speed="27.78" />
        <lane disallow="tram rail_urban rail rail_electric ship" id="-417680679#7_1" index="1" length="51.05" shape="1106.91,1878.91 1155.99,1878.66" speed="27.78" />
    </edge>
    <edge from="4913410583" id="-417680679#8" name="Walsh Avenue" priority="7" to="4913410581" type="highway.secondary">
        <lane disallow="tram rail_urban rail rail_electric ship" id="-417680679#8_0" index="0" length="11.64" shape="1095.25,1875.67 1106.89,1875.61" speed="27.78" />
        <lane disallow="tram rail_urban rail rail_electric ship" id="-417680679#8_1" index="1" length="11.64" shape="1095.27,1878.97 1106.91,1878.91" speed="27.78" />
    </edge>
    <edge from="668462028" id="-417680679#9" name="Walsh Avenue" priority="7" to="4913410583" type="highway.secondary">
        <lane disallow="tram rail_urban rail rail_electric ship" id="-417680679#9_0" index="0" length="23.18" shape="1075.47,1875.77 1095.25,1875.67" speed="27.78" />
        <lane disallow="tram rail_urban rail rail_electric ship" id="-417680679#9_1" index="1" length="23.18" shape="1075.49,1879.07 1095.27,1878.97" speed="27.78" />
    </edge>
    <edge from="cluster_4951309149_668437479" id="-417682558#0" name="Monroe Street" priority="7" shape="1467.93,938.48 1511.57,935.81" to="65596348" type="highway.secondary">
        <lane disallow="tram rail_urban rail rail_electric ship" id="-417682558#0_0" index="0" length="51.76" shape="1467.63,933.54 1503.62,931.34" speed="15.65" />
        <lane disallow="tram rail_urban rail rail_electric ship" id="-417682558#0_1" index="1" length="51.76" shape="1467.83,936.83 1503.83,934.63" speed="15.65" />
    </edge>
    <edge from="65543290" id="-417682567" name="Monroe Street" priority="7" shape="1087.39,1094.79 1130.28,1071.74 1160.47,1056.07 1187.83,1040.81" to="65583237" type="highway.secondary">
        <lane disallow="tram rail_urban rail rail_electric ship" id="-417682567_0" index="0" length="114.03" shape="1086.33,1089.74 1127.97,1067.36 1158.12,1051.71 1185.29,1036.56" speed="15.65" />
        <lane disallow="tram rail_urban rail rail_electric ship" id="-417682567_1" index="1" length="114.03" shape="1087.89,1092.65 1129.51,1070.28 1159.69,1054.62 1186.90,1039.44" speed="15.65" />
    </edge>
    <edge from="286891521" id="-417682575#0" name="Monroe Street" priority="7" shape="1431.83,940.83 1451.89,939.47" to="cluster_4951309149_668437479" type="highway.secondary">
        <lane disallow="tram rail_urban rail rail_electric ship" id="-417682575#0_0" index="0" length="28.14" shape="1431.76,935.87 1451.56,934.53" speed="15.65" />
        <lane disallow="tram rail_urban rail rail_electric ship" id="-417682575#0_1" index="1" length="28.14" shape="1431.99,939.17 1451.78,937.82" speed="15.65" />
    </edge>
    <edge from="65596342" id="-417682588" name="North Monroe Street" priority="7" shape="1851.35,873.71 1875.29,861.19 1896.79,850.67 1913.65,840.09 1923.49,831.20 1931.14,822.49" to="4169821894" type="highway.secondary">
        <lane disallow="tram rail_urban rail rail_electric ship" id="-417682588_0" index="0" length="95.71" shape="1850.70,872.19 1874.54,859.72 1895.99,849.23 1912.65,838.77 1922.31,830.04 1929.90,821.40" speed="13.41" />
    </edge>
    <edge from="65596343" id="-417682596" name="North Monroe Street" priority="7" shape="1648.57,942.64 1672.05,942.69 1695.34,942.35 1711.98,940.08 1730.21,935.40 1749.37,928.37 1781.47,912.83 1851.35,873.71" to="65596342" type="highway.secondary">
        <lane disallow="tram rail_urban rail rail_electric ship" id="-417682596_0" index="0" length="218.55" shape="1648.72,940.99 1672.04,941.04 1695.22,940.70 1711.66,938.46 1729.72,933.82 1748.72,926.85 1780.71,911.37 1850.43,872.33" speed="13.41" />
    </edge>
    <edge from="312939138" id="-417682604" name="North Monroe Street" priority="7" shape="716.91,1262.94 731.52,1259.06 754.05,1253.07" to="65528462" type="highway.secondary">
        <lane disallow="tram rail_urban rail rail_electric ship" id="-417682604_0" index="0" length="38.50" shape="715.78,1258.12 730.25,1254.28 752.84,1248.27" speed="15.65" />
        <lane disallow="tram rail_urban rail rail_electric ship" id="-417682604_1" index="1" length="38.50" shape="716.63,1261.31 731.10,1257.47 753.69,1251.46" speed="15.65" />
    </edge>
    <edge from="4951308914" id="-417682611#0" name="North Monroe Street" priority="7" shape="1597.05,940.90 1625.97,942.41 1648.57,942.64" to="65596343" type="highway.secondary">
        <lane disallow="tram rail_urban rail rail_electric ship" id="-417682611#0_0" index="0" length="51.56" shape="1597.14,939.25 1626.02,940.76 1648.44,940.99" speed="13.41" />
    </edge>
    <edge from="4951308919" id="-417682611#1" name="North Monroe Street" priority="7" to="4951308914" type="highway.secondary">
        <lane disallow="tram rail_urban rail rail_electric ship" id="-417682611#1_0" index="0" length="23.00" shape="1574.17,938.04 1597.14,939.25" speed="13.41" />
    </edge>
    <edge from="4320033105" id="-417682611#2" name="North Monroe Street" priority="7" to="4951308919" type="highway.secondary">
        <lane disallow="tram rail_urban rail rail_electric ship" id="-417682611#2_0" index="0" length="14.45" shape="1559.88,937.29 1574.17,938.04" speed="13.41" />
    </edge>
    <edge from="668437492" id="-417682611#3" name="North Monroe Street" priority="7" to="4320033105" type="highway.secondary">
        <lane disallow="tram rail_urban rail rail_electric ship" id="-417682611#3_0" index="0" length="13.35" shape="1555.09,937.13 1559.56,937.28" speed="13.41" />
    </edge>
    <edge from="65621686" id="-417687373" name="Scott Boulevard" priority="7" shape="1506.46,1524.02 1505.61,1591.75 1505.41,1607.33" to="4913410485" type="highway.secondary">
        <lane disallow="tram rail_urban rail rail_electric ship" id="-417687373_0" index="0" length="98.61" shape="1514.84,1513.60 1513.86,1591.85 1513.66,1607.29" speed="17.88" />
        <lane disallow="tram rail_urban rail rail_electric ship" id="-417687373_1" index="1" length="98.61" shape="1511.54,1513.56 1510.56,1591.81 1510.36,1607.24" speed="17.88" />
        <lane disallow="tram rail_urban rail rail_electric ship" id="-417687373_2" index="2" length="98.61" shape="1508.24,1513.52 1507.26,1591.77 1507.06,1607.20" speed="17.88" />
    </edge>
    <edge from="65572998" id="-417687393" name="Scott Boulevard" priority="7" shape="1501.91,1887.07 1501.64,1949.10 1501.39,2003.62 1500.66,2113.70" to="cluster_2145618890_4626297886" type="highway.secondary">
        <lane disallow="tram rail_urban rail rail_electric ship" id="-417687393_0" index="0" length="228.17" shape="1510.12,1895.24 1509.89,1949.14 1509.64,2003.67 1508.91,2113.75" speed="17.88" />
        <lane disallow="tram rail_urban rail rail_electric ship" id="-417687393_1" index="1" length="228.17" shape="1506.82,1895.23 1506.59,1949.12 1506.34,2003.65 1505.61,2113.73" speed="17.88" />
        <lane disallow="tram rail_urban rail rail_electric ship" id="-417687393_2" index="2" length="228.17" shape="1503.52,1895.21 1503.29,1949.11 1503.04,2003.63 1502.31,2113.71" speed="17.88" />
    </edge>
    <edge from="4913410536" id="-417687402#0" name="Scott Boulevard" priority="7" shape="1503.42,1766.74 1502.68,1826.00 1501.91,1887.07" to="65572998" type="highway.secondary">
        <lane disallow="tram rail_urban rail rail_electric ship" id="-417687402#0_0" index="0" length="120.34" shape="1511.67,1766.84 1510.93,1826.10 1510.26,1879.05" speed="17.88" />
        <lane disallow="tram rail_urban rail rail_electric ship" id="-417687402#0_1" index="1" length="120.34" shape="1508.37,1766.80 1507.63,1826.06 1506.96,1879.01" speed="17.88" />
        <lane disallow="tram rail_urban rail rail_electric ship" id="-417687402#0_2" index="2" length="120.34" shape="1505.07,1766.76 1504.33,1826.02 1503.66,1878.97" speed="17.88" />
    </edge>
    <edge from="4913410546" id="-417687402#1" name="Scott Boulevard" priority="7" to="4913410536" type="highway.secondary">
        <lane disallow="tram rail_urban rail rail_electric ship" id="-417687402#1_0" index="0" length="40.44" shape="1512.17,1726.55 1511.67,1766.84" speed="17.88" />
        <lane disallow="tram rail_urban rail rail_electric ship" id="-417687402#1_1" index="1" length="40.44" shape="1508.87,1726.51 1508.37,1766.80" speed="17.88" />
        <lane disallow="tram rail_urban rail rail_electric ship" id="-417687402#1_2" index="2" length="40.44" shape="1505.57,1726.47 1505.07,1766.76" speed="17.88" />
    </edge>
    <edge from="4913410522" id="-417687402#2" name="Scott Boulevard" priority="7" to="4913410546" type="highway.secondary">
        <lane disallow="tram rail_urban rail rail_electric ship" id="-417687402#2_0" index="0" length="87.52" shape="1513.27,1639.04 1512.17,1726.25" speed="17.88" />
        <lane disallow="tram rail_urban rail rail_electric ship" id="-417687402#2_1" index="1" length="87.52" shape="1509.97,1639.00 1508.87,1726.21" speed="17.88" />
        <lane disallow="tram rail_urban rail rail_electric ship" id="-417687402#2_2" index="2" length="87.52" shape="1506.67,1638.96 1505.57,1726.17" speed="17.88" />
    </edge>
    <edge from="4913410485" id="-417687402#3" name="Scott Boulevard" priority="7" to="4913410522" type="highway.secondary">
        <lane disallow="tram rail_urban rail rail_electric ship" id="-417687402#3_0" index="0" length="31.46" shape="1513.66,1607.58 1513.27,1638.74" speed="17.88" />
        <lane disallow="tram rail_urban rail rail_electric ship" id="-417687402#3_1" index="1" length="31.46" shape="1510.36,1607.54 1509.97,1638.70" speed="17.88" />